%chk=C:\Users\lecture12 materials\acetylchloride.chk
# hf/3-21g geom=connectivity

Title Card Required

0 1
 C                 -6.66666642   -1.46129540    0.00000000
 H                 -6.31001200   -2.47010540    0.00000000
 H                 -6.30999358   -0.95689721   -0.87365150
 H                 -7.73666642   -1.46128221    0.00000000
 C                 -6.15332420   -0.73533912    1.25740497
 O                 -6.45469612    0.46939403    1.46078527
 Cl                -5.14167597   -1.59356192    2.41396084

 1 2 1.0 3 1.0 4 1.0 5 1.0
 2
 3
 4
 5 6 2.0 7 1.0
 6
 7

